# Run_Name
gemc_methane.out
!------------------------------------------------------------------------------

# Sim_Type
GEMC
!------------------------------------------------------------------------------

# Nbr_Species
2
!------------------------------------------------------------------------------

# VDW_Style
LJ   cut_tail   2.55
LJ   cut_tail   2.55
!------------------------------------------------------------------------------

# Rcutoff_Low
1.0
!------------------------------------------------------------------------------

# Mixing_Rule
LB
!------------------------------------------------------------------------------

# Molecule_Files
methane.mcf 10
methane.mcf 10
!----------------------------------------------------------one line per species

!33.00
!37.50
# Box_Info
2
cubic
5.1

cubic
5.1
!-------------------------------------------------------line 1: number of boxes
!--------------------------------------------------------------line 2: box type
!--------------------------------------------------------------line 3: box size
!--------------------------------------------------------------repeat for second box

# Temperature_Info
175.0 
175.0
!----------------------------------------------------------one temperature per box

# Move_Probability_Info

# Prob_Volume
0.000001
10.0

! if nbr entries > 3 then default switch = false, else true.
# Prob_Identity_Switch
0.999999 0    
1 2
! prob_identity_switch number_rotations [num_groups]

# Done_Probability_Info
!---------------------one line for each box and one entry/line for each species
!-----------------------------------------each molecule moves per volume change

# Start_Type
make_config 3 3
make_config 3 3

!make_config 100 220
!make_config 150  30
! box1,sp1  box2,sp1
! box1,sp2  box2,sp2
!--------make_config: one line for each species and one entry/line for each box
!------------------------------------------------------------read_old: filename
!----------------------------------------------------------checkpoint: filename

# Run_Type
Equilibration 100 100
!-------------------------Equilibration: update maximum widths every 100 steps/update maximum
!-------------------------volume displacement every 100 steps

# Simulation_Length_Info
Units       Steps
Prop_Freq   1
Coord_Freq  10
Run         100
!------------------ simulation length every 2200 steps, XYZ output every 2200 steps, property
!---------------------------------------output every 100 steps

# Seed
1211131639 1211131640
!------------------------------------------------------------------------------

# Property_Info 1
Density
Nmols
Volume
Pressure
!------------------------------------------------------------------------------

# Property_Info 2
Density
Nmols
Volume
Pressure
!------------------------------------------------------------------------------


# Fragment_Files
species1/frag1/frag1.dat  1
species1/frag1/frag1.dat  2
!---------------------------------------------------------one line per fragment

# CBMC_Info
kappa_ins 12
rcut_cbmc 6.5 6.5
!------------------------------------------------------------------------------

# Average_Info
1

# Pair_Energy
TRUE
!------------------------------------------------------------------------------

END
